2015CitenelArticle/DVLU06.m
function mpc = DVLU06

%% MATPOWER Case Format : Version 2
mpc.version = '2';

%%-----  Power Flow Data  -----%%
%% system MVA base
mpc.baseMVA = 1;

%% bus data
%	bus_i	type	Pd	Qd	Gs	Bs	area	Vm	Va	baseKV	zone	Vmax	Vmin
mpc.bus = [
	100343469	1	0	0	0	0	0	1	0	13.8	0	1.1	0.9;
	100343483	1	0	0	0	0	0	1	0	13.8	0	1.1	0.9;
	100343490	1	0	0	0	0	0	1	0	13.8	0	1.1	0.9;
	100343497	1	0	0	0	0	0	1	0	13.8	0	1.1	0.9;
	100343504	1	0.0217656063	0.00612463221	0	0	0	1	0	13.8	0	1.1	0.9;
	100343511	1	0	0	0	0	0	1	0	13.8	0	1.1	0.9;
	100343518	1	0.0305242348	0.00994831888	0	0	0	1	0	13.8	0	1.1	0.9;
	100343525	1	0.0346898008	0.00987424999	0	0	0	1	0	13.8	0	1.1	0.9;
	100343532	1	0	0	0	0	0	1	0	13.8	0	1.1	0.9;
	100343539	1	0.0204858202	0.00607172586	0	0	0	1	0	13.8	0	1.1	0.9;
	100343546	1	0	0	0	0	0	1	0	13.8	0	1.1	0.9;
	100343553	1	0	0	0	0	0	1	0	13.8	0	1.1	0.9;
	100343560	1	0	0	0	0	0	1	0	13.8	0	1.1	0.9;
	100343567	1	0	0	0	0	0	1	0	13.8	0	1.1	0.9;
	100343574	1	0	0	0	0	0	1	0	13.8	0	1.1	0.9;
	100343581	1	0.0048126847	0.00230864101	0	0	0	1	0	13.8	0	1.1	0.9;
	100343588	1	0	0	0	0	0	1	0	13.8	0	1.1	0.9;
	100343595	1	0	0	0	0	0	1	0	13.8	0	1.1	0.9;
	100343602	1	0	0	0	0	0	1	0	13.8	0	1.1	0.9;
	100343609	1	0.0148829223	0.0037274933	0	0	0	1	0	13.8	0	1.1	0.9;
	100343616	1	0	0	0	0	0	1	0	13.8	0	1.1	0.9;
	100343623	1	0	0	0	0	0	1	0	13.8	0	1.1	0.9;
	100343700	1	0	0	0	0	0	1	0	13.8	0	1.1	0.9;
	100344232	1	0	0	0	0	0	1	0	13.8	0	1.1	0.9;
	100344239	1	0.08717317	0.0163770536	0	0	0	1	0	13.8	0	1.1	0.9;
	100344246	1	0	0	0	0	0	1	0	13.8	0	1.1	0.9;
	100344253	1	0	0	0	0	0	1	0	13.8	0	1.1	0.9;
	100344260	1	0.00144380541	0.000692592303	0	0	0	1	0	13.8	0	1.1	0.9;
	100344267	1	0.0294555921	0.00897772773	0	0	0	1	0	13.8	0	1.1	0.9;
	100344274	1	0.0181169244	0.00665273384	0	0	0	1	0	13.8	0	1.1	0.9;
	100344820	1	0	0	0	0	0	1	0	13.8	0	1.1	0.9;
	100344911	1	0	0	0	0	0	1	0	13.8	0	1.1	0.9;
	100344918	1	0	0	0	0	0	1	0	13.8	0	1.1	0.9;
	100344925	1	0.0451970816	0.0154755902	0	0	0	1	0	13.8	0	1.1	0.9;
	100344932	1	0.0123748989	0.00255874379	0	0	0	1	0	13.8	0	1.1	0.9;
	100344939	1	0	0	0	0	0	1	0	13.8	0	1.1	0.9;
	100344946	1	0	0	0	0	0	1	0	13.8	0	1.1	0.9;
	100345030	1	0	0	0	0	0	1	0	13.8	0	1.1	0.9;
	100345072	1	0	0	0	0	0	1	0	13.8	0	1.1	0.9;
	100345079	1	0	0	0	0	0	1	0	13.8	0	1.1	0.9;
	100345086	1	0.0256582574	0.00801483204	0	0	0	1	0	13.8	0	1.1	0.9;
	100345093	1	0	0	0	0	0	1	0	13.8	0	1.1	0.9;
	100345100	1	0	0	0	0	0	1	0	13.8	0	1.1	0.9;
	100345107	1	0	0	0	0	0	1	0	13.8	0	1.1	0.9;
	100345114	1	0.0106705372	0.00350432467	0	0	0	1	0	13.8	0	1.1	0.9;
	100345121	1	0	0	0	0	0	1	0	13.8	0	1.1	0.9;
	100345128	1	0.0220656798	0.00657770301	0	0	0	1	0	13.8	0	1.1	0.9;
	100345135	1	0.0139819389	0.00384484921	0	0	0	1	0	13.8	0	1.1	0.9;
	100345142	1	0	0	0	0	0	1	0	13.8	0	1.1	0.9;
	100345149	1	0.0271553555	0.00833227018	0	0	0	1	0	13.8	0	1.1	0.9;
	100345156	1	0.0293322452	0.0079224864	0	0	0	1	0	13.8	0	1.1	0.9;
	100345163	1	0.0254525195	0.00843134935	0	0	0	1	0	13.8	0	1.1	0.9;
	100345170	1	0	0	0	0	0	1	0	13.8	0	1.1	0.9;
	100345177	1	0	0	0	0	0	1	0	13.8	0	1.1	0.9;
	100345184	1	0.0169840253	0.00482698358	0	0	0	1	0	13.8	0	1.1	0.9;
	100345191	1	0	0	0	0	0	1	0	13.8	0	1.1	0.9;
	100350336	3	0	0	0	0	0	1	0	13.8	0	1.1	0.9;
	100350357	1	0	0	0	0	0	1	0	13.8	0	1.1	0.9;
	100350364	1	0	0	0	0	0	1	0	13.8	0	1.1	0.9;
	100350371	1	0.0350114094	0.00855159107	0	0	0	1	0	13.8	0	1.1	0.9;
	100350378	1	0	0	0	0	0	1	0	13.8	0	1.1	0.9;
	100350385	1	0.0403127734	0.00743093825	0	0	0	1	0	13.8	0	1.1	0.9;
	100350392	1	0	0	0	0	0	1	0	13.8	0	1.1	0.9;
	100350399	1	0	0	0	0	0	1	0	13.8	0	1.1	0.9;
	100350406	1	0	0	0	0	0	1	0	13.8	0	1.1	0.9;
	100350413	1	0.0131047138	0.00582835662	0	0	0	1	0	13.8	0	1.1	0.9;
	100350420	1	0	0	0	0	0	1	0	13.8	0	1.1	0.9;
	100350427	1	0.026699371	0.00490778601	0	0	0	1	0	13.8	0	1.1	0.9;
	100350434	1	0	0	0	0	0	1	0	13.8	0	1.1	0.9;
	100350441	1	0	0	0	0	0	1	0	13.8	0	1.1	0.9;
	103504669	1	0	0	0	0	0	1	0	13.8	0	1.1	0.9;
	103504676	1	0	0	0	0	0	1	0	13.8	0	1.1	0.9;
	103504683	1	0.0324947981	0.00781378788	0	0	0	1	0	13.8	0	1.1	0.9;
	103504690	1	0	0	0	0	0	1	0	13.8	0	1.1	0.9;
	103504697	1	0	0	0	0	0	1	0	13.8	0	1.1	0.9;
	103504704	1	0	0	0	0	0	1	0	13.8	0	1.1	0.9;
	103504711	1	0	0	0	0	0	1	0	13.8	0	1.1	0.9;
	103504718	1	0	0	0	0	0	1	0	13.8	0	1.1	0.9;
	103504725	1	0.0415873937	0.0110420376	0	0	0	1	0	13.8	0	1.1	0.9;
	103504732	1	0	0	0	0	0	1	0	13.8	0	1.1	0.9;
	103504739	1	0	0	0	0	0	1	0	13.8	0	1.1	0.9;
	103504746	1	0.0239791797	0.00682011032	0	0	0	1	0	13.8	0	1.1	0.9;
	103504753	1	0	0	0	0	0	1	0	13.8	0	1.1	0.9;
	103504760	1	0.0234435724	0.00444509588	0	0	0	1	0	13.8	0	1.1	0.9;
	103504767	1	0	0	0	0	0	1	0	13.8	0	1.1	0.9;
	103504774	1	0.0105452068	0.00186422762	0	0	0	1	0	13.8	0	1.1	0.9;
	103504781	1	0	0	0	0	0	1	0	13.8	0	1.1	0.9;
	103504788	1	0	0	0	0	0	1	0	13.8	0	1.1	0.9;
	103504795	1	0.0261847538	0.00587452944	0	0	0	1	0	13.8	0	1.1	0.9;
	103504802	1	0	0	0	0	0	1	0	13.8	0	1.1	0.9;
	103504809	1	0.0167349558	0.00316187625	0	0	0	1	0	13.8	0	1.1	0.9;
	103504816	1	0.0127720762	0.00240579632	0	0	0	1	0	13.8	0	1.1	0.9;
	103504823	1	0	0	0	0	0	1	0	13.8	0	1.1	0.9;
	103504830	1	0.0277463479	0.00589088231	0	0	0	1	0	13.8	0	1.1	0.9;
	103504837	1	0.016609255	0.00196811646	0	0	0	1	0	13.8	0	1.1	0.9;
	103504844	1	0.0131776669	0.002279783	0	0	0	1	0	13.8	0	1.1	0.9;
	103504851	1	0	0	0	0	0	1	0	13.8	0	1.1	0.9;
	103504858	1	0	0	0	0	0	1	0	13.8	0	1.1	0.9;
	103504865	1	0.0351017562	0.00672872661	0	0	0	1	0	13.8	0	1.1	0.9;
	103504872	1	0	0	0	0	0	1	0	13.8	0	1.1	0.9;
	103504879	1	0	0	0	0	0	1	0	13.8	0	1.1	0.9;
	103504914	1	0	0	0	0	0	1	0	13.8	0	1.1	0.9;
	103504921	1	0	0	0	0	0	1	0	13.8	0	1.1	0.9;
	103504928	1	0.000385014776	0.000184691281	0	0	0	1	0	13.8	0	1.1	0.9;
	103504935	1	0	0	0	0	0	1	0	13.8	0	1.1	0.9;
	103504942	1	0	0	0	0	0	1	0	13.8	0	1.1	0.9;
	103504998	1	0	0	0	0	0	1	0	13.8	0	1.1	0.9;
	103505005	1	0	0	0	0	0	1	0	13.8	0	1.1	0.9;
	103505019	1	0	0	0	0	0	1	0	13.8	0	1.1	0.9;
	103505026	1	0	0	0	0	0	1	0	13.8	0	1.1	0.9;
	103505033	1	0	0	0	0	0	1	0	13.8	0	1.1	0.9;
	103505054	1	0	0	0	0	0	1	0	13.8	0	1.1	0.9;
	103505061	1	0.204082388	0.0265147087	0	0	0	1	0	13.8	0	1.1	0.9;
	103505068	1	0	0	0	0	0	1	0	13.8	0	1.1	0.9;
	103505075	1	0.128487441	0.0274623945	0	0	0	1	0	13.8	0	1.1	0.9;
	103505082	1	0	0	0	0	0	1	0	13.8	0	1.1	0.9;
	103505089	1	0.0174490907	0.00305452606	0	0	0	1	0	13.8	0	1.1	0.9;
	103505096	1	0	0	0	0	0	1	0	13.8	0	1.1	0.9;
	103505103	1	0.189266595	0.0285203653	0	0	0	1	0	13.8	0	1.1	0.9;
	103505110	1	0	0	0	0	0	1	0	13.8	0	1.1	0.9;
	103505117	1	1.41509141	0.29873932	0	0	0	1	0	13.8	0	1.1	0.9;
	103505138	1	0	0	0	0	0	1	0	13.8	0	1.1	0.9;
	103505166	1	0	0	0	0	0	1	0	13.8	0	1.1	0.9;
	103505173	1	0	0	0	0	0	1	0	13.8	0	1.1	0.9;
	103505180	1	0	0	0	0	0	1	0	13.8	0	1.1	0.9;
	103505187	1	0	0	0	0	0	1	0	13.8	0	1.1	0.9;
	103505194	1	0	0	0	0	0	1	0	13.8	0	1.1	0.9;
	103505201	1	0	0	0	0	0	1	0	13.8	0	1.1	0.9;
	103505208	1	0	0	0	0	0	1	0	13.8	0	1.1	0.9;
	103505215	1	0	0	0	0	0	1	0	13.8	0	1.1	0.9;
	103505222	1	0	0	0	0	0	1	0	13.8	0	1.1	0.9;
	103505229	1	0	0	0	0	0	1	0	13.8	0	1.1	0.9;
	103505236	1	0.00118712889	0.000569464782	0	0	0	1	0	13.8	0	1.1	0.9;
	103505243	1	0	0	0	0	0	1	0	13.8	0	1.1	0.9;
	103505250	1	0.000182480962	8.75359716e-05	0	0	0	1	0	13.8	0	1.1	0.9;
	103505257	1	0	0	0	0	0	1	0	13.8	0	1.1	0.9;
	103505264	1	0	0	0	0	0	1	0	13.8	0	1.1	0.9;
	103505271	1	0.0006136173	0.000294351729	0	0	0	1	0	13.8	0	1.1	0.9;
	103505278	1	0	0	0	0	0	1	0	13.8	0	1.1	0.9;
	103505285	1	0	0	0	0	0	1	0	13.8	0	1.1	0.9;
	103505292	1	0	0	0	0	0	1	0	13.8	0	1.1	0.9;
	103505299	1	0	0	0	0	0	1	0	13.8	0	1.1	0.9;
	103505306	1	0	0	0	0	0	1	0	13.8	0	1.1	0.9;
	103505313	1	0	0	0	0	0	1	0	13.8	0	1.1	0.9;
	103505320	1	0	0	0	0	0	1	0	13.8	0	1.1	0.9;
	103505327	1	0.00248655376	0.00119279785	0	0	0	1	0	13.8	0	1.1	0.9;
	103505334	1	0	0	0	0	0	1	0	13.8	0	1.1	0.9;
	103505341	1	0	0	0	0	0	1	0	13.8	0	1.1	0.9;
	103505348	1	0.000300792794	0.000144290063	0	0	0	1	0	13.8	0	1.1	0.9;
	103505355	1	0	0	0	0	0	1	0	13.8	0	1.1	0.9;
	103505362	1	0	0	0	0	0	1	0	13.8	0	1.1	0.9;
	103505369	1	0	0	0	0	0	1	0	13.8	0	1.1	0.9;
	103505376	1	0.000300792794	0.000144290063	0	0	0	1	0	13.8	0	1.1	0.9;
	103505383	1	0	0	0	0	0	1	0	13.8	0	1.1	0.9;
	103505390	1	0.00085625682	0.000410745713	0	0	0	1	0	13.8	0	1.1	0.9;
	103505397	1	0.00277732013	0.00133227825	0	0	0	1	0	13.8	0	1.1	0.9;
	103505404	1	0	0	0	0	0	1	0	13.8	0	1.1	0.9;
	103505411	1	0	0	0	0	0	1	0	13.8	0	1.1	0.9;
	103505418	1	0	0	0	0	0	1	0	13.8	0	1.1	0.9;
	103505425	1	0	0	0	0	0	1	0	13.8	0	1.1	0.9;
	103505432	1	0	0	0	0	0	1	0	13.8	0	1.1	0.9;
	103505439	1	0.000246650091	0.000118317852	0	0	0	1	0	13.8	0	1.1	0.9;
	103505446	1	0	0	0	0	0	1	0	13.8	0	1.1	0.9;
	103505453	1	0.000348919641	0.000167376473	0	0	0	1	0	13.8	0	1.1	0.9;
	103505460	1	0.00108285406	0.000519444227	0	0	0	1	0	13.8	0	1.1	0.9;
	103505467	1	0	0	0	0	0	1	0	13.8	0	1.1	0.9;
	103505474	1	0	0	0	0	0	1	0	13.8	0	1.1	0.9;
	103505481	1	0	0	0	0	0	1	0	13.8	0	1.1	0.9;
	103505488	1	0.000559474597	0.000268379517	0	0	0	1	0	13.8	0	1.1	0.9;
	103505495	1	0.000372983065	0.000178919678	0	0	0	1	0	13.8	0	1.1	0.9;
	103505502	1	0	0	0	0	0	1	0	13.8	0	1.1	0.9;
	103505509	1	2.00528529e-05	9.61933754e-06	0	0	0	1	0	13.8	0	1.1	0.9;
	103505516	1	0	0	0	0	0	1	0	13.8	0	1.1	0.9;
	103505523	1	0	0	0	0	0	1	0	13.8	0	1.1	0.9;
	103505530	1	0	0	0	0	0	1	0	13.8	0	1.1	0.9;
	103505537	1	0	0	0	0	0	1	0	13.8	0	1.1	0.9;
	103505544	1	0	0	0	0	0	1	0	13.8	0	1.1	0.9;
	103505551	1	0.000635675438	0.000304933	0	0	0	1	0	13.8	0	1.1	0.9;
	103505558	1	0	0	0	0	0	1	0	13.8	0	1.1	0.9;
	103505565	1	0	0	0	0	0	1	0	13.8	0	1.1	0.9;
	103505572	1	0	0	0	0	0	1	0	13.8	0	1.1	0.9;
	103505579	1	0	0	0	0	0	1	0	13.8	0	1.1	0.9;
	103505586	1	0	0	0	0	0	1	0	13.8	0	1.1	0.9;
	103505593	1	0.00130343544	0.00062525694	0	0	0	1	0	13.8	0	1.1	0.9;
	103505600	1	0	0	0	0	0	1	0	13.8	0	1.1	0.9;
	103505607	1	0	0	0	0	0	1	0	13.8	0	1.1	0.9;
	103505614	1	0.0123075911	0.00234327062	0	0	0	1	0	13.8	0	1.1	0.9;
	103505621	1	0.0118408609	0.00132939245	0	0	0	1	0	13.8	0	1.1	0.9;
	103505628	1	0	0	0	0	0	1	0	13.8	0	1.1	0.9;
	103505635	1	0.00640078347	0.00119279785	0	0	0	1	0	13.8	0	1.1	0.9;
	103505642	1	0	0	0	0	0	1	0	13.8	0	1.1	0.9;
	103505649	1	0	0	0	0	0	1	0	13.8	0	1.1	0.9;
	103505656	1	0	0	0	0	0	1	0	13.8	0	1.1	0.9;
	103505663	1	0	0	0	0	0	1	0	13.8	0	1.1	0.9;
	103505670	1	0.00710324363	0.000980210495	0	0	0	1	0	13.8	0	1.1	0.9;
	103505677	1	0.0109514079	0.00224226758	0	0	0	1	0	13.8	0	1.1	0.9;
	103505684	1	0	0	0	0	0	1	0	13.8	0	1.1	0.9;
	103505691	1	0	0	0	0	0	1	0	13.8	0	1.1	0.9;
	103505698	1	0	0	0	0	0	1	0	13.8	0	1.1	0.9;
	103505705	1	0.00401131167	0.00103119298	0	0	0	1	0	13.8	0	1.1	0.9;
...
];

%% generator data
%	bus	Pg	Qg	Qmax	Qmin	Vg	mBase	status	Pmax	Pmin	Pc1	Pc2	Qc1min	Qc1max	Qc2min	Qc2max	ramp_agc	ramp_10	ramp_30	ramp_q	apf
mpc.gen = [
	100350336	5	0	2.5	-2.5	1	1	1	10	5	0	0	0	0	0	0	0	0	0	0	0;
];

%% branch data
%	fbus	tbus	r	x	b	rateA	rateB	rateC	ratio	angle	status	angmin	angmax
mpc.branch = [
	100343490	100343483	9.90738583e-05	0.000188121798	-2.62549884e-09	0.003519	0.0052716	0.005865	1	0	1	-360	360;
	100343490	100343504	3.82846111e-05	7.2694957e-05	-2.62549884e-09	0.003519	0.0052716	0.005865	1	0	1	-360	360;
	100343497	100343490	0.000349540689	0.000369502308	-2.62549884e-09	0.0037812	0.005658	0.0062928	1	0	1	-360	360;
	100343504	100343511	0.00011294431	0.000214459061	-2.62549884e-09	0.003519	0.0052716	0.005865	1	0	1	-360	360;
	100343511	100343518	3.41161886e-05	6.47799414e-05	-2.62549884e-09	0.003519	0.0052716	0.005865	1	0	1	-360	360;
	100343518	100343525	0.000237502553	0.000450970699	-2.62549884e-09	0.003519	0.0052716	0.005865	1	0	1	-360	360;
	100343525	100343532	4.05231908e-05	7.69455802e-05	-2.62549884e-09	0.003519	0.0052716	0.005865	1	0	1	-360	360;
	100343532	100343539	0.000359825407	0.000683237775	-2.62549884e-09	0.003519	0.0052716	0.005865	1	0	1	-360	360;
	100343539	100343546	2.5477148e-05	4.83761001e-05	-2.62549884e-09	0.003519	0.0052716	0.005865	1	0	1	-360	360;
	100343483	100343469	2.62549884e-07	2.62549884e-07	-2.62549884e-09	6	8	10	1	0	1	-360	360;
	4352071	100343497	2.62549884e-07	2.62549884e-07	-2.62549884e-09	6	8	10	1	0	1	-360	360;
	100343553	100343560	0.00013553828	0.000257360573	-2.62549884e-09	0.003519	0.0052716	0.005865	1	0	1	-360	360;
	100343560	100343574	3.00204946e-05	2.66575431e-05	-2.62549884e-09	0.003519	0.0052716	0.005865	1	0	1	-360	360;
	100343560	100343567	0.000125282433	0.000132437079	-2.62549884e-09	0.0037812	0.005658	0.0062928	1	0	1	-360	360;
	100343567	100343609	0.000215152321	0.00022743927	-2.62549884e-09	0.0037812	0.005658	0.0062928	1	0	1	-360	360;
	100343567	100343602	0.000297265453	9.05012587e-05	-2.62549884e-09	0.0009246	0.00138	0.0015456	1	0	1	-360	360;
	100343609	100343616	0.000158431156	0.000167478865	-2.62549884e-09	0.0037812	0.005658	0.0062928	1	0	1	-360	360;
	100343574	100343581	1.47469019e-05	2.80014703e-05	-2.62549884e-09	0.003519	0.0052716	0.005865	1	0	1	-360	360;
	100343581	100343588	0.000170657774	0.000324045595	-2.62549884e-09	0.003519	0.0052716	0.005865	1	0	1	-360	360;
	100343546	100343553	2.62549884e-07	2.62549884e-07	-2.62549884e-09	6	8	10	1	0	1	-360	360;
	100343588	100343595	2.62549884e-07	2.62549884e-07	-2.62549884e-09	6	8	10	1	0	1	-360	360;
	100343616	100343623	2.62549884e-07	2.62549884e-07	-2.62549884e-09	6	8	10	1	0	1	-360	360;
	100344232	100344239	0.00010448706	1.85585289e-05	-2.62549884e-09	0.001449	0.0021666	0.002415	1	0	1	-360	360;
	100343532	100344232	2.62549884e-07	2.62549884e-07	-2.62549884e-09	6	8	10	1	0	1	-360	360;
	100344246	100344253	0.00112176439	0.00125469465	-2.62549884e-09	0.0006624	0.0013662	0.0015318	1	0	1	-360	360;
	100344253	100344267	0.000659740869	0.000737920858	-2.62549884e-09	0.0006624	0.0013662	0.0015318	1	0	1	-360	360;
	100344253	100344260	0.000899086991	0.00100562975	-2.62549884e-09	0.0006624	0.0013662	0.0015318	1	0	1	-360	360;
	100344267	100344274	0.00125935163	0.00140858612	-2.62549884e-09	0.0006624	0.0013662	0.0015318	1	0	1	-360	360;
	100343511	100344246	2.62549884e-07	2.62549884e-07	-2.62549884e-09	6	8	10	1	0	1	-360	360;
	100344918	100344911	0.000409087217	0.000179925792	-2.62549884e-09	0.0012282	0.0018492	0.0020562	1	0	1	-360	360;
	100344918	100344932	0.000109682758	0.000115946536	-2.62549884e-09	0.0037812	0.005658	0.0062928	1	0	1	-360	360;
	100344925	100344918	3.89157521e-05	4.11381583e-05	-2.62549884e-09	0.0037812	0.005658	0.0062928	1	0	1	-360	360;
	100343623	100344925	0.000173508275	0.00018341701	-2.62549884e-09	0.0037812	0.005658	0.0062928	1	0	1	-360	360;
	100344932	100344939	0.000350654876	0.000370680124	-2.62549884e-09	0.0037812	0.005658	0.0062928	1	0	1	-360	360;
	100344911	100344820	2.62549884e-07	2.62549884e-07	-2.62549884e-09	6	8	10	1	0	1	-360	360;
	100344939	100344946	2.62549884e-07	2.62549884e-07	-2.62549884e-09	6	8	10	1	0	1	-360	360;
	100345079	100345072	0.000112915522	0.000119363918	-2.62549884e-09	0.0037812	0.005658	0.0062928	1	0	1	-360	360;
	100345079	100345100	4.36765374e-05	4.61708233e-05	-2.62549884e-09	0.0037812	0.005658	0.0062928	1	0	1	-360	360;
	100345079	100345093	2.38470732e-05	2.52089353e-05	-2.62549884e-09	0.0037812	0.005658	0.0062928	1	0	1	-360	360;
	100345086	100345079	3.61155166e-05	3.81780066e-05	-2.62549884e-09	0.0037812	0.005658	0.0062928	1	0	1	-360	360;
	100344946	100345086	8.78816462e-05	9.29004036e-05	-2.62549884e-09	0.0037812	0.005658	0.0062928	1	0	1	-360	360;
	100345072	100345030	2.62549884e-07	2.62549884e-07	-2.62549884e-09	6	8	10	1	0	1	-360	360;
	100345107	100345114	0.000337176956	0.000426236573	-2.62549884e-09	0.0025944	0.0038916	0.0043332	1	0	1	-360	360;
	100345114	100345121	0.000212193604	0.000268240972	-2.62549884e-09	0.0025944	0.0038916	0.0043332	1	0	1	-360	360;
	100345121	100345135	3.7759337e-05	7.16975646e-05	-2.62549884e-09	0.003519	0.0052716	0.005865	1	0	1	-360	360;
	100345121	100345128	0.000195616841	0.000247285737	-2.62549884e-09	0.0025944	0.0038916	0.0043332	1	0	1	-360	360;
	100345128	100345142	0.000233890447	0.000295668671	-2.62549884e-09	0.0025944	0.0038916	0.0043332	1	0	1	-360	360;
	100345142	100345156	0.00122217232	0.000537538972	-2.62549884e-09	0.0012282	0.0018492	0.0020562	1	0	1	-360	360;
	100345142	100345149	5.77477686e-05	7.30008696e-05	-2.62549884e-09	0.0025944	0.0038916	0.0043332	1	0	1	-360	360;
	100345149	100345163	0.00039641019	0.000501115269	-2.62549884e-09	0.0025944	0.0038916	0.0043332	1	0	1	-360	360;
	100345163	100345170	0.000172625582	0.000218221724	-2.62549884e-09	0.0025944	0.0038916	0.0043332	1	0	1	-360	360;
	100345135	100343700	6.23983343e-05	0.000118482181	-2.62549884e-09	0.003519	0.0052716	0.005865	1	0	1	-360	360;
	100345093	100345107	2.62549884e-07	2.62549884e-07	-2.62549884e-09	6	8	10	1	0	1	-360	360;
	100345170	2373871	2.62549884e-07	2.62549884e-07	-2.62549884e-09	6	8	10	1	0	1	-360	360;
	100345177	100345184	0.000345486047	0.000151952562	-2.62549884e-09	0.0012282	0.0018492	0.0020562	1	0	1	-360	360;
	100345184	100345191	0.000265626316	0.000297103314	-2.62549884e-09	0.0006624	0.0013662	0.0015318	1	0	1	-360	360;
	100345100	100345177	2.62549884e-07	2.62549884e-07	-2.62549884e-09	6	8	10	1	0	1	-360	360;
	100350364	100350371	2.2154115e-05	2.34192954e-05	-2.62549884e-09	0.0037812	0.005658	0.0062928	1	0	1	-360	360;
	100350371	100350378	0.000248925296	0.000263140957	-2.62549884e-09	0.0037812	0.005658	0.0062928	1	0	1	-360	360;
	100350378	100350392	0.000137708785	5.67671594e-05	-2.62549884e-09	0.001863	0.0028014	0.003105	1	0	1	-360	360;
	100350378	100350385	4.02115233e-05	4.25079286e-05	-2.62549884e-09	0.0037812	0.005658	0.0062928	1	0	1	-360	360;
	100350385	100350399	3.97702045e-05	4.20414069e-05	-2.62549884e-09	0.0037812	0.005658	0.0062928	1	0	1	-360	360;
	100350399	100350413	0.00013137842	5.41576175e-05	-2.62549884e-09	0.001863	0.0028014	0.003105	1	0	1	-360	360;
	100350399	100350406	0.000138613931	0.000146529914	-2.62549884e-09	0.0037812	0.005658	0.0062928	1	0	1	-360	360;
	100350406	100350420	0.000308706039	0.000111134174	-2.62549884e-09	0.0024426	0.003657	0.004071	1	0	1	-360	360;
	100350420	100350427	5.25030957e-05	5.55014499e-05	-2.62549884e-09	0.0037812	0.005658	0.0062928	1	0	1	-360	360;
	100350427	100350434	9.06143744e-05	9.57891928e-05	-2.62549884e-09	0.0037812	0.005658	0.0062928	1	0	1	-360	360;
	100350357	100350364	2.62549884e-07	2.62549884e-07	-2.62549884e-09	6	8	10	1	0	1	-360	360;
	100350434	100350441	2.62549884e-07	2.62549884e-07	-2.62549884e-09	6	8	10	1	0	1	-360	360;
	103504683	103504676	5.31080801e-05	6.71356854e-05	-2.62549884e-09	0.0025944	0.0038916	0.0043332	1	0	1	-360	360;
	103504690	103504683	5.75781024e-05	7.27863889e-05	-2.62549884e-09	0.0025944	0.0038916	0.0043332	1	0	1	-360	360;
	103504711	103504690	5.38399119e-05	6.80608182e-05	-2.62549884e-09	0.0025944	0.0038916	0.0043332	1	0	1	-360	360;
	103504690	103504697	5.83257338e-05	7.37314946e-05	-2.62549884e-09	0.0025944	0.0038916	0.0043332	1	0	1	-360	360;
	103504676	103504669	2.62549884e-07	2.62549884e-07	-2.62549884e-09	6	8	10	1	0	1	-360	360;
	103504697	103504704	2.62549884e-07	2.62549884e-07	-2.62549884e-09	6	8	10	1	0	1	-360	360;
	103504725	103504718	0.000276768197	0.000349871857	-2.62549884e-09	0.0025944	0.0038916	0.0043332	1	0	1	-360	360;
	103504732	103504725	0.000438358588	0.000554143629	-2.62549884e-09	0.0025944	0.0038916	0.0043332	1	0	1	-360	360;
	103504732	103504753	0.000106385574	7.145773e-05	-2.62549884e-09	0.001656	0.002484	0.0027738	1	0	1	-360	360;
	103504746	103504732	0.000225854091	0.000285509647	-2.62549884e-09	0.0025944	0.0038916	0.0043332	1	0	1	-360	360;
	103504732	103504739	0.000167190655	7.35342239e-05	-2.62549884e-09	0.0012282	0.0018492	0.0020562	1	0	1	-360	360;
	103504760	103504746	0.000384498429	0.000486057216	-2.62549884e-09	0.0025944	0.0038916	0.0043332	1	0	1	-360	360;
	103504767	103504760	5.39177396e-05	6.81592029e-05	-2.62549884e-09	0.0025944	0.0038916	0.0043332	1	0	1	-360	360;
	103504781	103504767	0.000220703146	0.000278998167	-2.62549884e-09	0.0025944	0.0038916	0.0043332	1	0	1	-360	360;
	103504767	103504774	0.000848604319	0.000373235335	-2.62549884e-09	0.0012282	0.0018492	0.0020562	1	0	1	-360	360;
	103504718	103504711	2.62549884e-07	2.62549884e-07	-2.62549884e-09	6	8	10	1	0	1	-360	360;
	103504788	103504795	0.000698081051	0.000307031804	-2.62549884e-09	0.0012282	0.0018492	0.0020562	1	0	1	-360	360;
	103504795	103504802	0.000633907853	0.000278806983	-2.62549884e-09	0.0012282	0.0018492	0.0020562	1	0	1	-360	360;
	103504802	103504816	0.000171547081	7.54502785e-05	-2.62549884e-09	0.0012282	0.0018492	0.0020562	1	0	1	-360	360;
	103504802	103504809	0.000738720662	0.000324906022	-2.62549884e-09	0.0012282	0.0018492	0.0020562	1	0	1	-360	360;
	103504816	103504823	0.000610004136	0.000268293589	-2.62549884e-09	0.0012282	0.0018492	0.0020562	1	0	1	-360	360;
	103504823	103504837	0.00135617064	0.000596474462	-2.62549884e-09	0.0012282	0.0018492	0.0020562	1	0	1	-360	360;
	103504823	103504830	0.00100829868	0.000443472519	-2.62549884e-09	0.0012282	0.0018492	0.0020562	1	0	1	-360	360;
	103504830	103504844	0.000941761298	0.000414207877	-2.62549884e-09	0.0012282	0.0018492	0.0020562	1	0	1	-360	360;
	103504739	103504788	2.62549884e-07	2.62549884e-07	-2.62549884e-09	6	8	10	1	0	1	-360	360;
	103504858	103504851	0.000222849738	0.000281711745	-2.62549884e-09	0.0025944	0.0038916	0.0043332	1	0	1	-360	360;
	103504858	103504872	4.77059184e-05	5.04303147e-05	-2.62549884e-09	0.0037812	0.005658	0.0062928	1	0	1	-360	360;
	103504865	103504858	4.64540484e-05	5.87241033e-05	-2.62549884e-09	0.0025944	0.0038916	0.0043332	1	0	1	-360	360;
	103504879	103504865	5.91112175e-05	7.47244505e-05	-2.62549884e-09	0.0025944	0.0038916	0.0043332	1	0	1	-360	360;
	103504851	103504781	2.62549884e-07	2.62549884e-07	-2.62549884e-09	6	8	10	1	0	1	-360	360;
	103504872	4155812	2.62549884e-07	2.62549884e-07	-2.62549884e-09	6	8	10	1	0	1	-360	360;
	103504921	103504914	8.52514161e-05	0.000107769143	-2.62549884e-09	0.0025944	0.0038916	0.0043332	1	0	1	-360	360;
	103504935	103504921	0.000357825541	0.000452339133	-2.62549884e-09	0.0025944	0.0038916	0.0043332	1	0	1	-360	360;
	103504921	103504928	0.000905729614	0.00101305953	-2.62549884e-09	0.0006624	0.0013662	0.0015318	1	0	1	-360	360;
	103504942	103504935	0.00206363472	0.00286577213	-2.62549884e-09	0.002622	0.0039468	0.0043884	1	0	1	-360	360;
	2373871	103504942	6.66254508e-05	8.4223442e-05	-2.62549884e-09	0.0025944	0.0038916	0.0043332	1	0	1	-360	360;
	103505054	103505061	2.1963255e-05	9.0538276e-06	-2.62549884e-09	0.001863	0.0028014	0.003105	1	0	1	-360	360;
	103505033	103505054	2.62549884e-07	2.62549884e-07	-2.62549884e-09	6	8	10	1	0	1	-360	360;
	103505068	103505075	0.000263596077	0.000294832491	-2.62549884e-09	0.0006624	0.0013662	0.0015318	1	0	1	-360	360;
	103505026	103505068	2.62549884e-07	2.62549884e-07	-2.62549884e-09	6	8	10	1	0	1	-360	360;
	103505082	103505089	4.91138074e-05	2.16013611e-05	-2.62549884e-09	0.0012282	0.0018492	0.0020562	1	0	1	-360	360;
	103505019	103505082	2.62549884e-07	2.62549884e-07	-2.62549884e-09	6	8	10	1	0	1	-360	360;
	103505096	103505103	5.49378201e-05	9.75781233e-06	-2.62549884e-09	0.001449	0.0021666	0.002415	1	0	1	-360	360;
	103505005	103505096	2.62549884e-07	2.62549884e-07	-2.62549884e-09	6	8	10	1	0	1	-360	360;
	103505110	103505117	0.000319983699	6.35844777e-05	-2.62549884e-09	0.000621	0.0009384	0.0010488	1	0	1	-360	360;
	103504998	103505110	2.62549884e-07	2.62549884e-07	-2.62549884e-09	6	8	10	1	0	1	-360	360;
	103505173	103505180	3.06923288e-05	3.87991908e-05	-2.62549884e-09	0.0025944	0.0038916	0.0043332	1	0	1	-360	360;
	103505180	103505194	4.93711435e-05	6.24116999e-05	-2.62549884e-09	0.0025944	0.0038916	0.0043332	1	0	1	-360	360;
	103505180	103505187	0.00156734191	0.000477170873	-2.62549884e-09	0.0009246	0.00138	0.0015456	1	0	1	-360	360;
	103505187	103505348	0.000476671992	0.000533158126	-2.62549884e-09	0.0006624	0.0013662	0.0015318	1	0	1	-360	360;
	103505194	103505201	0.000439890653	0.000610876703	-2.62549884e-09	0.002622	0.0039468	0.0043884	1	0	1	-360	360;
	103505201	103505208	0.000322802802	0.000448276658	-2.62549884e-09	0.002622	0.0039468	0.0043884	1	0	1	-360	360;
	103505208	103505222	9.62634084e-05	2.93070034e-05	-2.62549884e-09	0.0009246	0.00138	0.0015456	1	0	1	-360	360;
	103505208	103505215	0.000149272599	0.000207295047	-2.62549884e-09	0.002622	0.0039468	0.0043884	1	0	1	-360	360;
	103505215	103505243	0.000345395409	0.00047965104	-2.62549884e-09	0.002622	0.0039468	0.0043884	1	0	1	-360	360;
	103505215	103505236	7.7564289e-05	3.41145251e-05	-2.62549884e-09	0.0012282	0.0018492	0.0020562	1	0	1	-360	360;
	103505243	103505257	0.000454462923	0.000631113233	-2.62549884e-09	0.002622	0.0039468	0.0043884	1	0	1	-360	360;
	103505243	103505250	0.000470057633	0.000206741957	-2.62549884e-09	0.0012282	0.0018492	0.0020562	1	0	1	-360	360;
	103505257	103505271	0.000208031365	9.14968901e-05	-2.62549884e-09	0.0012282	0.0018492	0.0020562	1	0	1	-360	360;
	103505257	103505264	0.000184199563	0.000255798165	-2.62549884e-09	0.002622	0.0039468	0.0043884	1	0	1	-360	360;
	103505264	103505278	0.000343437447	0.000476932015	-2.62549884e-09	0.002622	0.0039468	0.0043884	1	0	1	-360	360;
	103505278	103505285	0.000324497113	0.000450629549	-2.62549884e-09	0.002622	0.0039468	0.0043884	1	0	1	-360	360;
	103505285	103505292	0.000200179626	0.000277989698	-2.62549884e-09	0.002622	0.0039468	0.0043884	1	0	1	-360	360;
	103505292	103505299	0.000572485305	0.000795011064	-2.62549884e-09	0.002622	0.0039468	0.0043884	1	0	1	-360	360;
	103505299	103505313	0.000599643732	0.000832726005	-2.62549884e-09	0.002622	0.0039468	0.0043884	1	0	1	-360	360;
	103505299	103505306	0.00136700454	0.000265972562	-2.62549884e-09	0.00069	0.001035	0.0011592	1	0	1	-360	360;
	103505306	103505341	0.00135332185	0.000254167014	-2.62549884e-09	0.0006624	0.0009936	0.0011178	1	0	1	-360	360;
	103505313	103505320	0.000154680752	0.000214805355	-2.62549884e-09	0.002622	0.0039468	0.0043884	1	0	1	-360	360;
	103505320	103505334	0.000260887496	0.000362294794	-2.62549884e-09	0.002622	0.0039468	0.0043884	1	0	1	-360	360;
	103505320	103505327	0.00123770676	0.00138437631	-2.62549884e-09	0.0006624	0.0013662	0.0015318	1	0	1	-360	360;
	103505222	103505229	0.000451104769	0.000137337013	-2.62549884e-09	0.0009246	0.00138	0.0015456	1	0	1	-360	360;
	103505166	103505173	2.62549884e-07	2.62549884e-07	-2.62549884e-09	6	8	10	1	0	1	-360	360;
	103505355	103505362	7.49589212e-05	0.000104095548	-2.62549884e-09	0.002622	0.0039468	0.0043884	1	0	1	-360	360;
	103505362	103505369	0.000208615583	0.000263717877	-2.62549884e-09	0.0025944	0.0038916	0.0043332	1	0	1	-360	360;
	103505369	103505376	0.000171743863	0.000217107114	-2.62549884e-09	0.0025944	0.0038916	0.0043332	1	0	1	-360	360;
	103505376	103505383	0.000252040836	0.000318613179	-2.62549884e-09	0.0025944	0.0038916	0.0043332	1	0	1	-360	360;
	103505383	103505397	0.000218421213	0.000276113499	-2.62549884e-09	0.0025944	0.0038916	0.0043332	1	0	1	-360	360;
	103505383	103505390	0.000368959544	0.000162276736	-2.62549884e-09	0.0012282	0.0018492	0.0020562	1	0	1	-360	360;
	103505397	103505404	0.000211762266	0.000267695704	-2.62549884e-09	0.0025944	0.0038916	0.0043332	1	0	1	-360	360;
	103505404	103505411	5.02966669e-05	6.35816848e-05	-2.62549884e-09	0.0025944	0.0038916	0.0043332	1	0	1	-360	360;
	103505411	103505418	0.0004262118	0.000591880863	-2.62549884e-09	0.002622	0.0039468	0.0043884	1	0	1	-360	360;
	103505418	103505439	0.00160753996	0.000489409006	-2.62549884e-09	0.0009246	0.00138	0.0015456	1	0	1	-360	360;
	103505418	103505432	0.000446495492	0.000196378796	-2.62549884e-09	0.0012282	0.0018492	0.0020562	1	0	1	-360	360;
	103505418	103505425	0.000191211759	0.00026553601	-2.62549884e-09	0.002622	0.0039468	0.0043884	1	0	1	-360	360;
	103505425	103505453	0.000170551652	7.50124664e-05	-2.62549884e-09	0.0012282	0.0018492	0.0020562	1	0	1	-360	360;
	103505425	103505446	0.000176081024	0.000244523939	-2.62549884e-09	0.002622	0.0039468	0.0043884	1	0	1	-360	360;
	103505446	103505467	0.000358948832	0.000498472695	-2.62549884e-09	0.002622	0.0039468	0.0043884	1	0	1	-360	360;
	103505446	103505460	0.00103499958	0.000315101415	-2.62549884e-09	0.0009246	0.00138	0.0015456	1	0	1	-360	360;
	103505467	103505481	0.00270509464	0.000823555069	-2.62549884e-09	0.0009246	0.00138	0.0015456	1	0	1	-360	360;
	103505467	103505474	0.000641874831	0.000891372386	-2.62549884e-09	0.002622	0.0039468	0.0043884	1	0	1	-360	360;
	103505474	103505509	0.000357275853	0.000157137985	-2.62549884e-09	0.0012282	0.0018492	0.0020562	1	0	1	-360	360;
	103505474	103505502	0.000190062933	0.000263940634	-2.62549884e-09	0.002622	0.0039468	0.0043884	1	0	1	-360	360;
	103505502	103505516	0.000420819502	0.000584392571	-2.62549884e-09	0.002622	0.0039468	0.0043884	1	0	1	-360	360;
	103505481	103505495	0.00288733855	0.000879038486	-2.62549884e-09	0.0009246	0.00138	0.0015456	1	0	1	-360	360;
	103505481	103505488	0.00116614691	0.000355028686	-2.62549884e-09	0.0009246	0.00138	0.0015456	1	0	1	-360	360;
	103505334	103505355	2.62549884e-07	2.62549884e-07	-2.62549884e-09	6	8	10	1	0	1	-360	360;
	103505523	103505530	0.000179901722	0.000249829748	-2.62549884e-09	0.002622	0.0039468	0.0043884	1	0	1	-360	360;
	103505530	103505544	0.000309857459	0.000430299443	-2.62549884e-09	0.002622	0.0039468	0.0043884	1	0	1	-360	360;
	103505530	103505537	0.000924329301	0.000281408298	-2.62549884e-09	0.0009246	0.00138	0.0015456	1	0	1	-360	360;
	103505537	103505593	0.000348961471	0.000390313773	-2.62549884e-09	0.0006624	0.0013662	0.0015318	1	0	1	-360	360;
	103505544	103505558	0.00193992359	0.00269397433	-2.62549884e-09	0.002622	0.0039468	0.0043884	1	0	1	-360	360;
	103505544	103505551	0.000948084631	0.000288640512	-2.62549884e-09	0.0009246	0.00138	0.0015456	1	0	1	-360	360;
	103505558	103505565	4.93711435e-05	6.24116999e-05	-2.62549884e-09	0.0025944	0.0038916	0.0043332	1	0	1	-360	360;
	103505565	103505586	0.000250771839	0.000110295115	-2.62549884e-09	0.0012282	0.0018492	0.0020562	1	0	1	-360	360;
	103505565	103505579	0.000174759582	7.20404659e-05	-2.62549884e-09	0.001863	0.0028014	0.003105	1	0	1	-360	360;
	103505565	103505572	0.000101092284	0.000127794109	-2.62549884e-09	0.0025944	0.0038916	0.0043332	1	0	1	-360	360;
	103505516	103505523	2.62549884e-07	2.62549884e-07	-2.62549884e-09	6	8	10	1	0	1	-360	360;
	103505600	103505607	0.000213809546	0.000270283738	-2.62549884e-09	0.0025944	0.0038916	0.0043332	1	0	1	-360	360;
	103505607	103505621	0.000904951686	0.000398018179	-2.62549884e-09	0.0012282	0.0018492	0.0020562	1	0	1	-360	360;
	103505607	103505614	7.09531762e-05	8.96942633e-05	-2.62549884e-09	0.0025944	0.0038916	0.0043332	1	0	1	-360	360;
	103505614	103505628	0.000480923973	0.000607951944	-2.62549884e-09	0.0025944	0.0038916	0.0043332	1	0	1	-360	360;
	103505628	103505635	0.000105741369	0.000133671171	-2.62549884e-09	0.0025944	0.0038916	0.0043332	1	0	1	-360	360;
	103505635	103505642	0.000200815786	0.000253857896	-2.62549884e-09	0.0025944	0.0038916	0.0043332	1	0	1	-360	360;
	103505642	103505656	0.000202193329	0.000255599293	-2.62549884e-09	0.0025944	0.0038916	0.0043332	1	0	1	-360	360;
	103505642	103505649	0.000628016576	0.000702437202	-2.62549884e-09	0.0006624	0.0013662	0.0015318	1	0	1	-360	360;
	103505649	103505824	0.000317932335	0.000139833818	-2.62549884e-09	0.0012282	0.0018492	0.0020562	1	0	1	-360	360;
	103505656	103505670	0.00198784359	0.00222340515	-2.62549884e-09	0.0006624	0.0013662	0.0015318	1	0	1	-360	360;
	103505656	103505663	0.000186015737	0.000235148662	-2.62549884e-09	0.0025944	0.0038916	0.0043332	1	0	1	-360	360;
	103505663	103505684	0.000192030594	0.000242752243	-2.62549884e-09	0.0025944	0.0038916	0.0043332	1	0	1	-360	360;
	103505663	103505677	0.000332551651	0.000146263723	-2.62549884e-09	0.0012282	0.0018492	0.0020562	1	0	1	-360	360;
	103505684	103505698	0.000170666714	0.000215745453	-2.62549884e-09	0.0025944	0.0038916	0.0043332	1	0	1	-360	360;
	103505684	103505691	0.000679646386	0.000298923822	-2.62549884e-09	0.0012282	0.0018492	0.0020562	1	0	1	-360	360;
	103505691	103505817	0.000460045012	0.000202338181	-2.62549884e-09	0.0012282	0.0018492	0.0020562	1	0	1	-360	360;
	103505691	103505810	8.86612484e-05	3.89952184e-05	-2.62549884e-09	0.0012282	0.0018492	0.0020562	1	0	1	-360	360;
	103505698	103505712	0.000226527255	0.000286360616	-2.62549884e-09	0.0025944	0.0038916	0.0043332	1	0	1	-360	360;
	103505698	103505705	0.000615050913	0.000687935094	-2.62549884e-09	0.0006624	0.0013662	0.0015318	1	0	1	-360	360;
	103505712	103505726	0.000466677442	0.00014207805	-2.62549884e-09	0.0009246	0.00138	0.0015456	1	0	1	-360	360;
	103505712	103505719	0.00065404485	0.000908272907	-2.62549884e-09	0.002622	0.0039468	0.0043884	1	0	1	-360	360;
	103505719	103505747	0.000382348783	0.000116404533	-2.62549884e-09	0.0009246	0.00138	0.0015456	1	0	1	-360	360;
	103505719	103505740	0.001741279	0.000530125314	-2.62549884e-09	0.0009246	0.00138	0.0015456	1	0	1	-360	360;
	103505719	103505733	0.000751411141	0.0010434856	-2.62549884e-09	0.002622	0.0039468	0.0043884	1	0	1	-360	360;
...
];

%%-----  OPF Data  -----%%
%% generator cost data
%	1	startup	shutdown	n	x1	y1	...	xn	yn
%	2	startup	shutdown	n	c(n-1)	...	c0
mpc.gencost = [
	2	0	0	3	0.25	20	0;
];
